!- Linux Line endings 

Version,
    8.6.0.001;                !- Version Identifier

SimulationControl,
    Yes,                      !- Do Zone Sizing Calculation
    Yes,                      !- Do System Sizing Calculation
    No,                       !- Do Plant Sizing Calculation
    No,                       !- Run Simulation for Sizing Periods
    Yes;                      !- Run Simulation for Weather File Run Periods

Building,
    Building,                 !- Name
    0.0,                      !- North Axis
    Suburbs,                  !- Terrain
    0.04,                     !- Loads Convergence Tolerance Value
    0.4,                      !- Temperature Convergence Tolerance Value
    MinimalShadowing,         !- Solar Distribution
    7,                        !- Maximum Number of Warmup Days
    3;                        !- Minimum Number of Warmup Days

ShadowCalculation,
    AverageOverDaysInFrequency,    !- Calculation Method
    60,                       !- Calculation Frequency
    1500,                     !- Maximum Figures in Shadow Overlap Calculations
    SutherlandHodgman,        !- Polygon Clipping Algorithm
    SimpleSkyDiffuseModeling;    !- Sky Diffuse Modeling Algorithm

SurfaceConvectionAlgorithm:Inside,
    SimpleCombined;           !- Algorithm

SurfaceConvectionAlgorithm:Outside,
    Simple;                   !- Algorithm

HeatBalanceAlgorithm,
    ConductionTransferFunction,    !- Algorithm
    2000.0,                   !- Surface Temperature Upper Limit
    1e-08,                    !- Minimum Surface Convection Heat Transfer Coefficient Value
    1000.0;                   !- Maximum Surface Convection Heat Transfer Coefficient Value

ZoneCapacitanceMultiplier:ResearchSpecial,
    1.0,                      !- Temperature Capacity Multiplier
    1.0,                      !- Humidity Capacity Multiplier
    1.0,                      !- Carbon Dioxide Capacity Multiplier
    1.0;                      !- Generic Contaminant Capacity Multiplier

Timestep,
    2;                        !- Number of Timesteps per Hour

ConvergenceLimits,
    30,                       !- Minimum System Timestep
    3;                        !- Maximum HVAC Iterations

Site:Location,
    Tour Montreau (01-01:31-12)  (01-01:31-12),    !- Name
    48.77,                    !- Latitude
    2.0,                      !- Longitude
    1.0,                      !- Time Zone
    168.0;                    !- Elevation

SizingPeriod:DesignDay,
    Winter Design Day in Tour Montreau (01-01:31-12),    !- Name
    1,                        !- Month
    15,                       !- Day of Month
    WinterDesignDay,          !- Day Type
    -4.6,                     !- Maximum DryBulb Temperature
    0.0,                      !- Daily DryBulb Temperature Range
    ,                         !- DryBulb Temperature Range Modifier Type
    ,                         !- DryBulb Temperature Range Modifier Day Schedule Name
    WetBulb,                  !- Humidity Condition Type
    -4.6,                     !- Wetbulb or DewPoint at Maximum DryBulb
    ,                         !- Humidity Condition Day Schedule Name
    ,                         !- Humidity Ratio at Maximum DryBulb
    ,                         !- Enthalpy at Maximum DryBulb
    ,                         !- Daily WetBulb Temperature Range
    99323.0,                  !- Barometric Pressure
    8.4,                      !- Wind Speed
    0.0,                      !- Wind Direction
    No,                       !- Rain Indicator
    No,                       !- Snow Indicator
    No,                       !- Daylight Saving Time Indicator
    ,                         !- Solar Model Indicator
    ,                         !- Beam Solar Day Schedule Name
    ,                         !- Diffuse Solar Day Schedule Name
    ,                         !- ASHRAE Clear Sky Optical Depth for Beam Irradiance taub
    ,                         !- ASHRAE Clear Sky Optical Depth for Diffuse Irradiance taud
    0.0;                      !- Sky Clearness

RunPeriod,
    Tour Montreau (01-01:31-12),    !- Name
    1,                        !- Begin Month
    1,                        !- Begin Day of Month
    12,                       !- End Month
    31,                       !- End Day of Month
    UseWeatherFile,           !- Day of Week for Start Day
    No,                       !- Use Weather File Holidays and Special Days
    No,                       !- Use Weather File Daylight Saving Period
    Yes,                      !- Apply Weekend Holiday Rule
    Yes,                      !- Use Weather File Rain Indicators
    Yes,                      !- Use Weather File Snow Indicators
    1;                        !- Number of Times Runperiod to be Repeated

RunPeriodControl:DaylightSavingTime,
    Last Sunday in March,     !- Start Date
    Last Sunday in October;    !- End Date

Site:GroundTemperature:BuildingSurface,
    18.0,                     !- January Ground Temperature
    18.0,                     !- February Ground Temperature
    18.0,                     !- March Ground Temperature
    18.0,                     !- April Ground Temperature
    18.0,                     !- May Ground Temperature
    18.0,                     !- June Ground Temperature
    18.0,                     !- July Ground Temperature
    18.0,                     !- August Ground Temperature
    18.0,                     !- September Ground Temperature
    18.0,                     !- October Ground Temperature
    18.0,                     !- November Ground Temperature
    18.0;                     !- December Ground Temperature

Site:GroundTemperature:FCfactorMethod,
    3.98,                     !- January Ground Temperature
    5.32,                     !- February Ground Temperature
    7.94,                     !- March Ground Temperature
    10.41,                    !- April Ground Temperature
    15.09,                    !- May Ground Temperature
    17.56,                    !- June Ground Temperature
    18.24,                    !- July Ground Temperature
    16.99,                    !- August Ground Temperature
    14.1,                     !- September Ground Temperature
    10.5,                     !- October Ground Temperature
    6.96,                     !- November Ground Temperature
    4.62;                     !- December Ground Temperature

Site:GroundTemperature:Shallow,
    14.0,                     !- January Surface Ground Temperature
    14.0,                     !- February Surface Ground Temperature
    14.0,                     !- March Surface Ground Temperature
    14.0,                     !- April Surface Ground Temperature
    14.0,                     !- May Surface Ground Temperature
    14.0,                     !- June Surface Ground Temperature
    14.0,                     !- July Surface Ground Temperature
    14.0,                     !- August Surface Ground Temperature
    14.0,                     !- September Surface Ground Temperature
    14.0,                     !- October Surface Ground Temperature
    14.0,                     !- November Surface Ground Temperature
    14.0;                     !- December Surface Ground Temperature

Site:GroundTemperature:Deep,
    14.0,                     !- January Deep Ground Temperature
    14.0,                     !- February Deep Ground Temperature
    14.0,                     !- March Deep Ground Temperature
    14.0,                     !- April Deep Ground Temperature
    14.0,                     !- May Deep Ground Temperature
    14.0,                     !- June Deep Ground Temperature
    14.0,                     !- July Deep Ground Temperature
    14.0,                     !- August Deep Ground Temperature
    14.0,                     !- September Deep Ground Temperature
    14.0,                     !- October Deep Ground Temperature
    14.0,                     !- November Deep Ground Temperature
    14.0;                     !- December Deep Ground Temperature

Site:GroundReflectance,
    0.2,                      !- January Ground Reflectance
    0.2,                      !- February Ground Reflectance
    0.2,                      !- March Ground Reflectance
    0.2,                      !- April Ground Reflectance
    0.2,                      !- May Ground Reflectance
    0.2,                      !- June Ground Reflectance
    0.2,                      !- July Ground Reflectance
    0.2,                      !- August Ground Reflectance
    0.2,                      !- September Ground Reflectance
    0.2,                      !- October Ground Reflectance
    0.2,                      !- November Ground Reflectance
    0.2;                      !- December Ground Reflectance

Site:GroundReflectance:SnowModifier,
    2.0,                      !- Ground Reflected Solar Modifier
    2.0;                      !- Daylighting Ground Reflected Solar Modifier

ScheduleTypeLimits,
    Any Number;               !- Name

ScheduleTypeLimits,
    Fraction,                 !- Name
    0.0,                      !- Lower Limit Value
    1.0,                      !- Upper Limit Value
    CONTINUOUS;               !- Numeric Type

ScheduleTypeLimits,
    Temperature,              !- Name
    -60.0,                    !- Lower Limit Value
    200.0,                    !- Upper Limit Value
    CONTINUOUS;               !- Numeric Type

ScheduleTypeLimits,
    Control Type,             !- Name
    0.0,                      !- Lower Limit Value
    4.0,                      !- Upper Limit Value
    DISCRETE;                 !- Numeric Type

ScheduleTypeLimits,
    On/Off,                   !- Name
    0.0,                      !- Lower Limit Value
    1.0,                      !- Upper Limit Value
    DISCRETE;                 !- Numeric Type

Schedule:Day:Hourly,
    0,                        !- Name
    Any Number,               !- Schedule Type Limits Name
    0.0,                      !- Hour 1
    0.0,                      !- Hour 2
    0.0,                      !- Hour 3
    0.0,                      !- Hour 4
    0.0,                      !- Hour 5
    0.0,                      !- Hour 6
    0.0,                      !- Hour 7
    0.0,                      !- Hour 8
    0.0,                      !- Hour 9
    0.0,                      !- Hour 10
    0.0,                      !- Hour 11
    0.0,                      !- Hour 12
    0.0,                      !- Hour 13
    0.0,                      !- Hour 14
    0.0,                      !- Hour 15
    0.0,                      !- Hour 16
    0.0,                      !- Hour 17
    0.0,                      !- Hour 18
    0.0,                      !- Hour 19
    0.0,                      !- Hour 20
    0.0,                      !- Hour 21
    0.0,                      !- Hour 22
    0.0,                      !- Hour 23
    0.0;                      !- Hour 24

Schedule:Day:Hourly,
    50,                       !- Name
    Any Number,               !- Schedule Type Limits Name
    50.0,                     !- Hour 1
    50.0,                     !- Hour 2
    50.0,                     !- Hour 3
    50.0,                     !- Hour 4
    50.0,                     !- Hour 5
    50.0,                     !- Hour 6
    50.0,                     !- Hour 7
    50.0,                     !- Hour 8
    50.0,                     !- Hour 9
    50.0,                     !- Hour 10
    50.0,                     !- Hour 11
    50.0,                     !- Hour 12
    50.0,                     !- Hour 13
    50.0,                     !- Hour 14
    50.0,                     !- Hour 15
    50.0,                     !- Hour 16
    50.0,                     !- Hour 17
    50.0,                     !- Hour 18
    50.0,                     !- Hour 19
    50.0,                     !- Hour 20
    50.0,                     !- Hour 21
    50.0,                     !- Hour 22
    50.0,                     !- Hour 23
    50.0;                     !- Hour 24

Schedule:Day:Hourly,
    Off,                      !- Name
    Fraction,                 !- Schedule Type Limits Name
    0.0,                      !- Hour 1
    0.0,                      !- Hour 2
    0.0,                      !- Hour 3
    0.0,                      !- Hour 4
    0.0,                      !- Hour 5
    0.0,                      !- Hour 6
    0.0,                      !- Hour 7
    0.0,                      !- Hour 8
    0.0,                      !- Hour 9
    0.0,                      !- Hour 10
    0.0,                      !- Hour 11
    0.0,                      !- Hour 12
    0.0,                      !- Hour 13
    0.0,                      !- Hour 14
    0.0,                      !- Hour 15
    0.0,                      !- Hour 16
    0.0,                      !- Hour 17
    0.0,                      !- Hour 18
    0.0,                      !- Hour 19
    0.0,                      !- Hour 20
    0.0,                      !- Hour 21
    0.0,                      !- Hour 22
    0.0,                      !- Hour 23
    0.0;                      !- Hour 24

Schedule:Day:Hourly,
    Summer Control Type Day Sch,    !- Name
    Control Type,             !- Schedule Type Limits Name
    4.0,                      !- Hour 1
    4.0,                      !- Hour 2
    4.0,                      !- Hour 3
    4.0,                      !- Hour 4
    4.0,                      !- Hour 5
    4.0,                      !- Hour 6
    4.0,                      !- Hour 7
    4.0,                      !- Hour 8
    4.0,                      !- Hour 9
    4.0,                      !- Hour 10
    4.0,                      !- Hour 11
    4.0,                      !- Hour 12
    4.0,                      !- Hour 13
    4.0,                      !- Hour 14
    4.0,                      !- Hour 15
    4.0,                      !- Hour 16
    4.0,                      !- Hour 17
    4.0,                      !- Hour 18
    4.0,                      !- Hour 19
    4.0,                      !- Hour 20
    4.0,                      !- Hour 21
    4.0,                      !- Hour 22
    4.0,                      !- Hour 23
    4.0;                      !- Hour 24

Schedule:Day:Hourly,
    Winter Control Type Day Sch,    !- Name
    Control Type,             !- Schedule Type Limits Name
    4.0,                      !- Hour 1
    4.0,                      !- Hour 2
    4.0,                      !- Hour 3
    4.0,                      !- Hour 4
    4.0,                      !- Hour 5
    4.0,                      !- Hour 6
    4.0,                      !- Hour 7
    4.0,                      !- Hour 8
    4.0,                      !- Hour 9
    4.0,                      !- Hour 10
    4.0,                      !- Hour 11
    4.0,                      !- Hour 12
    4.0,                      !- Hour 13
    4.0,                      !- Hour 14
    4.0,                      !- Hour 15
    4.0,                      !- Hour 16
    4.0,                      !- Hour 17
    4.0,                      !- Hour 18
    4.0,                      !- Hour 19
    4.0,                      !- Hour 20
    4.0,                      !- Hour 21
    4.0,                      !- Hour 22
    4.0,                      !- Hour 23
    4.0;                      !- Hour 24

Schedule:Day:Hourly,
    Summer Control Type Day Sch - cool,    !- Name
    Control Type,             !- Schedule Type Limits Name
    2.0,                      !- Hour 1
    2.0,                      !- Hour 2
    2.0,                      !- Hour 3
    2.0,                      !- Hour 4
    2.0,                      !- Hour 5
    2.0,                      !- Hour 6
    2.0,                      !- Hour 7
    2.0,                      !- Hour 8
    2.0,                      !- Hour 9
    2.0,                      !- Hour 10
    2.0,                      !- Hour 11
    2.0,                      !- Hour 12
    2.0,                      !- Hour 13
    2.0,                      !- Hour 14
    2.0,                      !- Hour 15
    2.0,                      !- Hour 16
    2.0,                      !- Hour 17
    2.0,                      !- Hour 18
    2.0,                      !- Hour 19
    2.0,                      !- Hour 20
    2.0,                      !- Hour 21
    2.0,                      !- Hour 22
    2.0,                      !- Hour 23
    2.0;                      !- Hour 24

Schedule:Day:Hourly,
    Winter Control Type Day Sch - heat,    !- Name
    Control Type,             !- Schedule Type Limits Name
    1.0,                      !- Hour 1
    1.0,                      !- Hour 2
    1.0,                      !- Hour 3
    1.0,                      !- Hour 4
    1.0,                      !- Hour 5
    1.0,                      !- Hour 6
    1.0,                      !- Hour 7
    1.0,                      !- Hour 8
    1.0,                      !- Hour 9
    1.0,                      !- Hour 10
    1.0,                      !- Hour 11
    1.0,                      !- Hour 12
    1.0,                      !- Hour 13
    1.0,                      !- Hour 14
    1.0,                      !- Hour 15
    1.0,                      !- Hour 16
    1.0,                      !- Hour 17
    1.0,                      !- Hour 18
    1.0,                      !- Hour 19
    1.0,                      !- Hour 20
    1.0,                      !- Hour 21
    1.0,                      !- Hour 22
    1.0,                      !- Hour 23
    1.0;                      !- Hour 24

Schedule:Week:Daily,
    Off,                      !- Name
    Off,                      !- Sunday ScheduleDay Name
    Off,                      !- Monday ScheduleDay Name
    Off,                      !- Tuesday ScheduleDay Name
    Off,                      !- Wednesday ScheduleDay Name
    Off,                      !- Thursday ScheduleDay Name
    Off,                      !- Friday ScheduleDay Name
    Off,                      !- Saturday ScheduleDay Name
    Off,                      !- Holiday ScheduleDay Name
    Off,                      !- SummerDesignDay ScheduleDay Name
    Off,                      !- WinterDesignDay ScheduleDay Name
    Off,                      !- CustomDay1 ScheduleDay Name
    Off;                      !- CustomDay2 ScheduleDay Name

Schedule:Week:Daily,
    Summer Control Type Week Sch,    !- Name
    Summer Control Type Day Sch,    !- Sunday ScheduleDay Name
    Summer Control Type Day Sch,    !- Monday ScheduleDay Name
    Summer Control Type Day Sch,    !- Tuesday ScheduleDay Name
    Summer Control Type Day Sch,    !- Wednesday ScheduleDay Name
    Summer Control Type Day Sch,    !- Thursday ScheduleDay Name
    Summer Control Type Day Sch,    !- Friday ScheduleDay Name
    Summer Control Type Day Sch,    !- Saturday ScheduleDay Name
    Summer Control Type Day Sch,    !- Holiday ScheduleDay Name
    Summer Control Type Day Sch,    !- SummerDesignDay ScheduleDay Name
    Summer Control Type Day Sch,    !- WinterDesignDay ScheduleDay Name
    Summer Control Type Day Sch,    !- CustomDay1 ScheduleDay Name
    Summer Control Type Day Sch;    !- CustomDay2 ScheduleDay Name

Schedule:Week:Daily,
    Winter Control Type Week Sch,    !- Name
    Winter Control Type Day Sch,    !- Sunday ScheduleDay Name
    Winter Control Type Day Sch,    !- Monday ScheduleDay Name
    Winter Control Type Day Sch,    !- Tuesday ScheduleDay Name
    Winter Control Type Day Sch,    !- Wednesday ScheduleDay Name
    Winter Control Type Day Sch,    !- Thursday ScheduleDay Name
    Winter Control Type Day Sch,    !- Friday ScheduleDay Name
    Winter Control Type Day Sch,    !- Saturday ScheduleDay Name
    Winter Control Type Day Sch,    !- Holiday ScheduleDay Name
    Winter Control Type Day Sch,    !- SummerDesignDay ScheduleDay Name
    Winter Control Type Day Sch,    !- WinterDesignDay ScheduleDay Name
    Winter Control Type Day Sch,    !- CustomDay1 ScheduleDay Name
    Winter Control Type Day Sch;    !- CustomDay2 ScheduleDay Name

Schedule:Week:Daily,
    Summer Control Type Week Sch - cool,    !- Name
    Summer Control Type Day Sch - cool,    !- Sunday ScheduleDay Name
    Summer Control Type Day Sch - cool,    !- Monday ScheduleDay Name
    Summer Control Type Day Sch - cool,    !- Tuesday ScheduleDay Name
    Summer Control Type Day Sch - cool,    !- Wednesday ScheduleDay Name
    Summer Control Type Day Sch - cool,    !- Thursday ScheduleDay Name
    Summer Control Type Day Sch - cool,    !- Friday ScheduleDay Name
    Summer Control Type Day Sch - cool,    !- Saturday ScheduleDay Name
    Summer Control Type Day Sch - cool,    !- Holiday ScheduleDay Name
    Summer Control Type Day Sch - cool,    !- SummerDesignDay ScheduleDay Name
    Summer Control Type Day Sch - cool,    !- WinterDesignDay ScheduleDay Name
    Summer Control Type Day Sch - cool,    !- CustomDay1 ScheduleDay Name
    Summer Control Type Day Sch - cool;    !- CustomDay2 ScheduleDay Name

Schedule:Week:Daily,
    Winter Control Type Week Sch - heat,    !- Name
    Winter Control Type Day Sch - heat,    !- Sunday ScheduleDay Name
    Winter Control Type Day Sch - heat,    !- Monday ScheduleDay Name
    Winter Control Type Day Sch - heat,    !- Tuesday ScheduleDay Name
    Winter Control Type Day Sch - heat,    !- Wednesday ScheduleDay Name
    Winter Control Type Day Sch - heat,    !- Thursday ScheduleDay Name
    Winter Control Type Day Sch - heat,    !- Friday ScheduleDay Name
    Winter Control Type Day Sch - heat,    !- Saturday ScheduleDay Name
    Winter Control Type Day Sch - heat,    !- Holiday ScheduleDay Name
    Winter Control Type Day Sch - heat,    !- SummerDesignDay ScheduleDay Name
    Winter Control Type Day Sch - heat,    !- WinterDesignDay ScheduleDay Name
    Winter Control Type Day Sch - heat,    !- CustomDay1 ScheduleDay Name
    Winter Control Type Day Sch - heat;    !- CustomDay2 ScheduleDay Name

Schedule:Year,
    Zone Control Type Sched,    !- Name
    Control Type,             !- Schedule Type Limits Name
    Winter Control Type Week Sch,    !- ScheduleWeek Name 1
    1,                        !- Start Month 1
    1,                        !- Start Day 1
    3,                        !- End Month 1
    31,                       !- End Day 1
    Summer Control Type Week Sch,    !- ScheduleWeek Name 2
    4,                        !- Start Month 2
    1,                        !- Start Day 2
    9,                        !- End Month 2
    30,                       !- End Day 2
    Winter Control Type Week Sch,    !- ScheduleWeek Name 3
    10,                       !- Start Month 3
    1,                        !- Start Day 3
    12,                       !- End Month 3
    31;                       !- End Day 3

Schedule:Compact,
    On,                       !- Name
    Any Number,               !- Schedule Type Limits Name
    Through: 12/31,           !- Field 1
    For: AllDays,             !- Field 2
    Until: 24:00,             !- Field 3
    1;                        !- Field 4

Schedule:Compact,
    Off,                      !- Name
    Any Number,               !- Schedule Type Limits Name
    Through: 12/31,           !- Field 1
    For: AllDays,             !- Field 2
    Until: 24:00,             !- Field 3
    0;                        !- Field 4

Schedule:Compact,
    Work efficiency,          !- Name
    Any Number,               !- Schedule Type Limits Name
    Through: 12/31,           !- Field 1
    For: AllDays,             !- Field 2
    Until: 24:00,             !- Field 3
    0;                        !- Field 4

Schedule:Compact,
    OpaqueShade,              !- Name
    Any Number,               !- Schedule Type Limits Name
    Through: 12/31,           !- Field 1
    For: AllDays,             !- Field 2
    Until: 24:00,             !- Field 3
    0;                        !- Field 4

Schedule:Compact,
    Zone Comfort Control Type Sched,    !- Name
    Control Type,             !- Schedule Type Limits Name
    Through: 12/31,           !- Field 1
    For: AllDays,             !- Field 2
    Until: 24:00,             !- Field 3
    4;                        !- Field 4

Schedule:Compact,
    Design Days Only,         !- Name
    Any Number,               !- Schedule Type Limits Name
    Through: 12/31,           !- Field 1
    For: SummerDesignDay WinterDesignDay,    !- Field 2
    Until: 24:00,             !- Field 3
    1,                        !- Field 4
    For: AllOtherDays,        !- Field 5
    Until: 24:00,             !- Field 6
    0;                        !- Field 7

Schedule:Compact,
    TypOperativeTempControlSch,    !- Name
    Temperature,              !- Schedule Type Limits Name
    Through: 31 Dec,          !- Field 1
    For: SummerDesignDay WinterDesignDay,    !- Field 2
    Until: 24:00,             !- Field 3
    0.0,                      !- Field 4
    For: AllOtherDays,        !- Field 5
    Until: 24:00,             !- Field 6
    0.5;                      !- Field 7

Schedule:Compact,
    OnWinterDesignDay,        !- Name
    Any Number,               !- Schedule Type Limits Name
    Through: 12/31,           !- Field 1
    For: WinterDesignDay,     !- Field 2
    Until: 24:00,             !- Field 3
    1,                        !- Field 4
    For: AllOtherDays,        !- Field 5
    Until: 24:00,             !- Field 6
    0;                        !- Field 7

Schedule:Compact,
    OnSummerDesignDay,        !- Name
    Any Number,               !- Schedule Type Limits Name
    Through: 12/31,           !- Field 1
    For: SummerDesignDay,     !- Field 2
    Until: 24:00,             !- Field 3
    1,                        !- Field 4
    For: AllOtherDays,        !- Field 5
    Until: 24:00,             !- Field 6
    0;                        !- Field 7

Schedule:Compact,
    AirVelocitySchedule,      !- Name
    Any Number,               !- Schedule Type Limits Name
    Through: 12/31,           !- Field 1
    For: AllDays,             !- Field 2
    Until: 24:00,             !- Field 3
    .137;                     !- Field 4

Schedule:Compact,
    On 24/7,                  !- Name
    Any Number,               !- Schedule Type Limits Name
    Through: 12/31,           !- Field 1
    For: AllDays,             !- Field 2
    Until: 24:00,             !- Field 3
    1;                        !- Field 4

Schedule:Compact,
    Office_OpenOff_Occ,       !- Name
    Fraction,                 !- Schedule Type Limits Name
    Through: 31 Dec,          !- Field 1
    For: Weekdays SummerDesignDay,    !- Field 2
    Until: 07:00,             !- Field 3
    0,                        !- Field 4
    Until: 08:00,             !- Field 5
    0.25,                     !- Field 6
    Until: 09:00,             !- Field 7
    0.5,                      !- Field 8
    Until: 12:00,             !- Field 9
    1,                        !- Field 10
    Until: 14:00,             !- Field 11
    0.75,                     !- Field 12
    Until: 17:00,             !- Field 13
    1,                        !- Field 14
    Until: 18:00,             !- Field 15
    0.5,                      !- Field 16
    Until: 19:00,             !- Field 17
    0.25,                     !- Field 18
    Until: 24:00,             !- Field 19
    0,                        !- Field 20
    For: Weekends,            !- Field 21
    Until: 24:00,             !- Field 22
    0,                        !- Field 23
    For: Holidays,            !- Field 24
    Until: 24:00,             !- Field 25
    0,                        !- Field 26
    For: WinterDesignDay AllOtherDays,    !- Field 27
    Until: 24:00,             !- Field 28
    0;                        !- Field 29

Schedule:Compact,
    Office_OpenOff_Equip,     !- Name
    Fraction,                 !- Schedule Type Limits Name
    Through: 31 Dec,          !- Field 1
    For: Weekdays SummerDesignDay,    !- Field 2
    Until: 07:00,             !- Field 3
    0.05394,                  !- Field 4
    Until: 20:00,             !- Field 5
    1,                        !- Field 6
    Until: 24:00,             !- Field 7
    0.05394,                  !- Field 8
    For: Weekends,            !- Field 9
    Until: 24:00,             !- Field 10
    0.05394,                  !- Field 11
    For: Holidays,            !- Field 12
    Until: 24:00,             !- Field 13
    0.05394,                  !- Field 14
    For: WinterDesignDay AllOtherDays,    !- Field 15
    Until: 24:00,             !- Field 16
    0;                        !- Field 17

Schedule:Compact,
    Office_OpenOff_Light,     !- Name
    Fraction,                 !- Schedule Type Limits Name
    Through: 31 Dec,          !- Field 1
    For: Weekdays SummerDesignDay,    !- Field 2
    Until: 07:00,             !- Field 3
    0,                        !- Field 4
    Until: 19:00,             !- Field 5
    1,                        !- Field 6
    Until: 24:00,             !- Field 7
    0,                        !- Field 8
    For: Weekends,            !- Field 9
    Until: 24:00,             !- Field 10
    0,                        !- Field 11
    For: Holidays,            !- Field 12
    Until: 24:00,             !- Field 13
    0,                        !- Field 14
    For: WinterDesignDay AllOtherDays,    !- Field 15
    Until: 24:00,             !- Field 16
    0;                        !- Field 17

Schedule:Compact,
    Activity Schedule 2456,    !- Name
    Any Number,               !- Schedule Type Limits Name
    Through: 12/31,           !- Field 1
    For: AllDays,             !- Field 2
    Until: 24:00,             !- Field 3
    110.7;                    !- Field 4

Schedule:Compact,
    Clothing Schedule 2456,    !- Name
    Any Number,               !- Schedule Type Limits Name
    Through: 4/1,             !- Field 1
    For: AllDays,             !- Field 2
    Until: 24:00,             !- Field 3
    1,                        !- Field 4